25
-35.706361
  N   0.089284   1.673309  -0.937277 
  N   0.095144  -1.374578   0.147168 
  C   0.955278   1.418323  -2.073833 
  C   1.010294   1.855181   0.137172 
  O   2.139084   0.971496  -0.138462 
  C   2.142895   0.708451  -1.440490 
  C  -1.031619   0.770793  -0.743004 
  C  -0.791701  -0.750474  -0.841421 
  C   0.983210  -2.283100  -0.324535 
  O   2.963523  -0.011631  -1.940217 
  C  -0.048441  -1.065152   1.408821 
  H  -1.486501   1.036218   0.211755 
  H  -0.410693  -0.991408  -1.836798 
  H  -1.760329   1.013870  -1.521884 
  H  -1.774690  -1.225498  -0.742985 
  H  -0.806727  -0.374030   1.720808 
  H   0.556600  -1.564823   2.150355 
  H   1.309918   2.369406  -2.493299 
  H   0.478385   0.853541  -2.871297 
  H   0.777192  -2.658137  -1.319754 
  H   1.273459  -3.044051   0.399606 
  H   0.604710   1.609894   1.120917 
  H   1.402476   2.883425   0.135245 
 Ca   3.362777  -1.138314  -0.136187 
  H   4.083510  -1.329059   1.381409 
25
-35.675989
  N   0.154709   1.517642  -0.215808 
  N   0.267047  -1.522986   0.092056 
  C   0.526597   2.766060   0.461992 
  C  -0.603819   2.042501  -1.353366 
  O  -1.299357   3.187293  -0.899469 
  C  -0.656497   3.712335   0.161524 
  C  -0.701617   0.698831   0.662165 
  C  -0.946455  -0.711211   0.110092 
  C   0.637762  -2.079533   1.210908 
  O  -0.970670   4.698858   0.734392 
  C   0.976561  -1.550561  -1.066774 
  H  -0.192970   0.606250   1.630468 
  H  -1.357565  -0.664516  -0.901461 
  H  -1.676865   1.181862   0.820110 
  H  -1.685691  -1.198339   0.752324 
  H   0.387324  -1.399998  -1.962775 
  H   1.682200  -2.378165  -1.134991 
  H   1.426117   3.206153   0.005909 
  H   0.690236   2.648941   1.535614 
  H   0.034948  -1.978298   2.096294 
  H   1.521783  -2.699535   1.238515 
  H  -1.339149   1.338417  -1.747948 
  H   0.087723   2.342354  -2.157777 
 Ca   2.431972   0.349627  -0.382418 
  H   3.144842   0.338851   1.164891 
25
-35.675344
  N   0.847882   0.893743   1.103985 
  N  -0.176351  -0.567380  -1.357381 
  C   0.369281   0.357856   2.382288 
  C   1.626876   2.047767   1.559769 
  O   0.969071   2.576743   2.692418 
  C   0.247387   1.605105   3.284311 
  C  -0.273681   1.330454   0.253178 
  C  -1.013416   0.160993  -0.407690 
  C   0.440184  -1.690995  -0.905099 
  O  -0.366815   1.718765   4.289896 
  C  -0.002165  -0.040377  -2.536550 
  H  -1.004024   1.915305   0.831468 
  H  -1.876025   0.570366  -0.941137 
  H   0.142843   1.968424  -0.537133 
  H  -1.385042  -0.537974   0.345463 
  H  -0.503769   0.873022  -2.804030 
  H   0.596643  -0.553425  -3.274990 
  H   1.112557  -0.314839   2.828562 
  H  -0.585358  -0.160741   2.314623 
  H  -0.082399  -2.205796  -0.108061 
  H   0.795663  -2.350448  -1.696892 
  H   1.706796   2.834727   0.802206 
  H   2.640451   1.723377   1.861084 
 Ca   2.501246  -0.455955  -0.254709 
  H   3.235808   0.606154  -1.362137 
25
-35.674524
  N  -0.646321  -0.668017   0.715729 
  N   1.245894   0.773077  -0.963900 
  C  -0.444641  -2.088860   0.413959 
  C  -1.695334  -0.746743   1.730540 
  O  -2.536180  -1.827723   1.382789 
  C  -1.837940  -2.713242   0.641891 
  C  -1.112091   0.080688  -0.463041 
  C  -0.012207   0.275780  -1.514703 
  C   2.329524   0.074841  -1.164796 
  O  -2.252933  -3.744831   0.237318 
  C   1.180331   1.914239  -0.229516 
  H  -1.957825  -0.424354  -0.952563 
  H  -0.379940   0.998093  -2.252443 
  H  -1.457767   1.058075  -0.114069 
  H   0.183411  -0.660603  -2.042767 
  H   0.348923   2.562099  -0.477694 
  H   2.132411   2.435088  -0.128465 
  H   0.262856  -2.535198   1.128873 
  H  -0.093502  -2.280652  -0.598935 
  H   2.299672  -0.843491  -1.724928 
  H   3.283658   0.460465  -0.832659 
  H  -2.311187   0.157057   1.785125 
  H  -1.245009  -0.961466   2.718949 
 Ca   1.151611   0.532700   1.860666 
  H   2.422289  -0.492700   2.335353 
25
-35.674513
  N  -0.549027  -1.018673  -0.117170 
  N   0.904075   1.461021   0.363879 
  C  -0.253391  -1.421721  -1.495851 
  C  -1.416591  -2.114040   0.311465 
  O  -2.187440  -2.502013  -0.806820 
  C  -1.525105  -2.176887  -1.937100 
  C  -1.261338   0.268169  -0.067086 
  C  -0.350238   1.461025  -0.384968 
  C   2.023531   1.511878  -0.303239 
  O  -1.892158  -2.414799  -3.036308 
  C   0.808567   1.354588   1.715197 
  H  -2.102419   0.291146  -0.775728 
  H  -0.901754   2.376343  -0.141320 
  H  -1.667406   0.380137   0.942330 
  H  -0.118544   1.491790  -1.452451 
  H  -0.125587   1.712674   2.129532 
  H   1.691358   1.699613   2.253165 
  H   0.596619  -2.120249  -1.516765 
  H  -0.043383  -0.587916  -2.164339 
  H   2.025175   1.556404  -1.378245 
  H   2.960640   1.590547   0.231051 
  H  -2.104264  -1.830369   1.114934 
  H  -0.800282  -2.978961   0.624707 
 Ca   1.269669  -1.102648   1.519371 
  H   2.702818  -1.720499   0.844281 
25
-35.674281
  N  -0.808202   0.538777   0.428440 
  N   1.482338  -0.804593  -0.764336 
  C  -1.870523   0.563740   1.437042 
  C  -1.022038   1.830023  -0.227231 
  O  -2.418943   2.062657  -0.239825 
  C  -2.999875   1.373544   0.757342 
  C  -0.997727  -0.584387  -0.503201 
  C   0.194647  -0.759503  -1.452425 
  C   1.614940  -1.734633   0.216887 
  O  -4.152073   1.385059   1.028354 
  C   2.391597   0.071742  -1.090854 
  H  -1.122274  -1.493674   0.091466 
  H   0.219669   0.048059  -2.188050 
  H  -1.902266  -0.452848  -1.115222 
  H   0.055724  -1.700049  -1.997187 
  H   2.200536   0.808567  -1.851164 
  H   3.375881   0.011773  -0.647214 
  H  -1.551440   1.135330   2.323158 
  H  -2.222327  -0.426352   1.735588 
  H   0.979221  -2.603905   0.102061 
  H   2.648050  -1.973313   0.468822 
  H  -0.667485   1.856027  -1.260023 
  H  -0.524368   2.625899   0.355018 
 Ca   1.085797   0.025964   1.917100 
  H   2.037634   1.402646   2.207715 
25
-35.649461
  N  -0.790445   0.507358   1.727518 
  N   1.050759  -0.365998  -1.374916 
  C  -0.804348  -0.572979   2.709545 
  C  -2.041066   1.180603   2.014752 
  O  -2.973954   0.191742   2.432204 
  C  -2.302284  -0.872209   2.901117 
  C  -0.665482   0.034428   0.357545 
  C   0.825671  -0.223077   0.057866 
  C   0.952781  -1.551251  -1.894745 
  O  -2.799419  -1.856638   3.342977 
  C   1.411207   0.762573  -2.052348 
  H  -1.249378  -0.876966   0.158623 
  H   1.162055  -1.130764   0.570944 
  H  -1.025524   0.826399  -0.305551 
  H   1.399787   0.633532   0.446060 
  H   1.038018   1.681141  -1.608014 
  H   1.251437   0.699801  -3.130960 
  H  -0.398532  -0.211001   3.658223 
  H  -0.251682  -1.455505   2.398954 
  H   0.717818  -2.402910  -1.279233 
  H   1.054906  -1.683948  -2.964992 
  H  -2.453844   1.707655   1.153919 
  H  -1.884247   1.887733   2.840085 
 Ca   3.826717   0.344552  -1.633046 
  H   4.142257  -1.226550  -1.001871 
25
-35.648732
  N  -0.831028   1.477268   0.995066 
  N   1.091255  -1.199123  -0.731299 
  C  -1.884537   1.470595   2.004468 
  C  -1.265631   2.554337   0.126506 
  O  -2.687273   2.544141   0.116831 
  C  -3.129066   1.949700   1.240913 
  C  -0.657927   0.206364   0.309081 
  C   0.779265   0.140390  -0.250243 
  C   1.609040  -2.069368   0.183287 
  O  -4.271137   1.816377   1.536915 
  C   0.909716  -1.459200  -1.989699 
  H  -0.789635  -0.596672   1.038803 
  H   1.472620   0.420291   0.559823 
  H  -1.381763   0.054068  -0.505222 
  H   0.892069   0.860018  -1.067556 
  H   0.544290  -0.700504  -2.660421 
  H   1.075318  -2.461691  -2.365423 
  H  -1.647727   2.206884   2.778425 
  H  -2.037763   0.501146   2.471054 
  H   1.311077  -1.862334   1.207125 
  H   1.508737  -3.119276  -0.099703 
  H  -0.912592   2.448280  -0.900153 
  H  -0.920131   3.511549   0.537600 
 Ca   3.947705  -1.397166  -0.317697 
  H   4.083296  -0.395387  -1.713155 
